xflr5 v6.61

Plane name :        CAT V2
Polar name :        T1-15.0 m/s-VLM2
Freestream speed :  15.000 m/s


   alpha      Beta       CL          CDi        CDv        CD         CY         Cl         Cm         Cn        Cni       QInf        XCP


